100

Ar         0.56030   -0.07038    0.90176
Ar         1.79045    1.39770    0.00901
Ar         3.64980    0.54360    0.31602
Ar         3.47962    0.08688    0.61228
Ar         4.34179    0.17456    1.30476
Ar         1.41272    1.80200    0.06509
Ar         1.31944    1.41703    2.11027
Ar         2.89794    1.74885   -0.21424
Ar         2.95059    0.93701    0.92911
Ar         3.72692    0.74820    1.34507
Ar         0.24353    2.92082    0.59575
Ar         0.98169    3.16440    0.67595
Ar         2.81406    2.02318   -0.18957
Ar         0.04892    2.21118   -0.01332
Ar         3.59935    2.81822    1.22689
Ar         0.36040    2.85606    0.58596
Ar         2.11184    4.18384    2.45212
Ar         2.19796    3.96568    0.85397
Ar         3.29680    3.06639    0.11269
Ar         3.73350    4.47615    1.01070
Ar        -0.14441    4.46036    0.17648
Ar         0.93718    0.65997    0.46497
Ar         1.94626    4.31842    0.32471
Ar         3.78890   -0.75915   -0.05109
Ar         3.38253    3.84909    0.14264
Ar         1.15843    0.91819    1.77956
Ar         1.92931    0.57415    1.77105
Ar         2.71902   -0.22915    2.05467
Ar         3.29638    0.52786    1.80049
Ar         4.57729    0.92463    1.38627
Ar         1.01383    2.08332    2.27214
Ar         1.22425    1.18336    0.99076
Ar         2.33292    1.54698    1.18493
Ar         4.20306    1.30695    1.54652
Ar         0.01420    1.00767    1.03613
Ar         1.06529    2.91531    1.80747
Ar        -0.04878    2.12134    1.86540
Ar         2.14739    1.54542    0.62967
Ar         2.96427    2.13344    1.77576
Ar        -0.37822    2.66276    1.66855
Ar        -0.06780    3.31282    0.71478
Ar         0.96979    3.09331    0.81180
Ar         2.36935    3.04831    2.07201
Ar         4.32780    4.77630    1.61849
Ar        -0.95625    1.68472    1.55697
Ar         1.57632    4.26714    1.09574
Ar         1.61560   -0.11067    1.29854
Ar         2.47738    4.03956    1.73117
Ar         2.37714   -0.78506    2.54463
Ar        -0.34837    4.08692    1.57132
Ar         2.01770   -0.47109    2.18680
Ar         0.91761    0.44139    1.96975
Ar         3.79409    0.09679    3.56629
Ar         3.79075    0.69344    2.61002
Ar        -0.65706    1.03477    2.34762
Ar         0.27476    1.47186    2.30779
Ar         1.31769    1.35943    1.79986
Ar         3.42446    2.20261    2.38949
Ar         2.57888    2.14964    2.03279
Ar         4.04316    0.94062    3.14153
Ar         0.85210    2.64670    2.80123
Ar         2.02693    3.23827    2.32548
Ar         1.76828    3.06693    3.20695
Ar         4.54005    1.47342    2.09542
Ar         3.49375    3.04111    2.05980
Ar         1.19352    4.26494    1.29444
Ar         2.06187    3.05416    1.80584
Ar         2.49421    2.36492    2.99587
Ar         2.66728    4.15800    2.29773
Ar         4.18991    3.33247    1.34531
Ar         0.74704    4.53328    2.30003
Ar         1.37193   -1.01784    1.39872
Ar         3.02110    3.54753    2.54392
Ar         4.00672    3.93011    2.16447
Ar         0.44476    3.59639    2.84480
Ar         0.42614    1.08253    4.05927
Ar         2.28320    0.67215    3.67353
Ar         3.59510    0.71439    2.44516
Ar         2.91460   -0.04636    3.31485
Ar         3.07794    0.67105    3.79741
Ar         1.16697    0.66063    2.95481
Ar         1.60206    0.89664    2.70681
Ar         1.61929    1.54126    4.82589
Ar         2.74059    1.34812    3.70251
Ar         0.09151    0.75122    2.78970
Ar         0.03508    2.55859    3.90393
Ar         2.03257    2.59605    2.86122
Ar         1.91398    2.98915    3.48128
Ar         4.12272    2.98800    4.39920
Ar         0.00487    3.00932    3.17486
Ar        -0.58163    3.60919    4.16711
Ar         1.57620    3.38545    3.94388
Ar         1.96296    3.21097    4.08807
Ar         3.75313    3.30051    2.90441
Ar        -0.13807    2.90156    2.95068
Ar         0.51731    3.59504    2.10864
Ar         1.17348    0.53361    3.43358
Ar         1.89692    3.43098    4.30036
Ar         3.17007    4.30511    3.52580
Ar        -0.16778   -1.09701    3.83714
100

Ar         0.40578    0.76668    0.85612
Ar         1.19023   -0.07323    0.10379
Ar        -1.03600    0.46531   -0.19556
Ar         1.39620    0.34466   -0.85863
Ar         1.28381    0.58229    0.27920
Ar         0.12589    0.98787   -0.13990
Ar         0.79464    0.30528   -0.24970
Ar        -0.31476    1.55732    0.54429
Ar         1.49535    0.35816    0.02306
Ar         0.10990    1.50077   -0.57144
Ar         1.42361   -0.15205    0.50344
Ar         1.51737    0.37328   -0.05221
Ar        -0.40092   -0.20803   -0.41646
Ar         1.03397   -0.04417    0.57365
Ar         0.15473    0.21286    0.01953
Ar         1.34525    0.63579   -0.50494
Ar         1.48230    1.67623    0.76115
Ar         0.23887    1.74303    0.27828
Ar         0.99241    1.28344   -0.01540
Ar        -0.50680    1.44796    0.50593
Ar         0.70963    0.64013   -0.20329
Ar         1.47773    1.22276   -0.20654
Ar         0.23025   -0.27021   -0.23325
Ar         1.22074   -0.73229   -0.52611
Ar         1.04307   -1.45838   -0.28046
Ar         0.73866   -0.40606    0.03491
Ar         1.30553    1.11747    1.13422
Ar        -0.16029   -0.80685    1.25624
Ar         1.06085   -1.14042    0.11950
Ar        -0.12229    0.71838    1.90261
Ar         0.63397    1.30772    0.08205
Ar         1.35367    0.97688    1.54993
Ar        -0.53203    1.46908   -0.33904
Ar         1.17563    1.33785    1.81573
Ar         0.56199    1.13757    1.85639
Ar         1.21291   -0.22612    0.94156
Ar        -0.30751   -0.87696    1.55593
Ar        -1.02238   -0.47065   -0.56906
Ar         0.90308   -0.45658    0.96797
Ar         1.23022    1.27994    0.51051
Ar        -0.09913    0.00117    1.77835
Ar         1.91176    2.10446   -0.52836
Ar         0.44324    1.67723    1.21551
Ar         0.10551    1.96975    0.24733
Ar         0.07320    1.21934    1.70175
Ar         0.35631    1.62844    1.40466
Ar         0.64590   -0.61738    1.87816
Ar         0.31873    0.83098    1.91471
Ar         1.60960    0.52978    1.74224
Ar         0.09039    1.74242    1.23929
Ar         0.34003   -0.18820   -0.27669
Ar         1.39704    0.76579    0.40127
Ar         0.83732    0.03756   -0.15356
Ar         1.01788    0.31225   -0.01760
Ar        -0.23375    0.30075   -0.09709
Ar         0.38281    1.40307   -0.55541
Ar         1.15890    0.99917   -0.64456
Ar        -0.15894    0.89000   -0.16646
Ar         0.67994    1.80543   -0.11413
Ar         1.36926    1.25433    0.13066
Ar        -0.57781    0.53640   -0.73470
Ar         1.07249   -0.46147   -0.68774
Ar        -0.14223    0.07698   -0.04103
Ar         0.97154    1.65732    0.31753
Ar         1.27935    0.80564   -0.57051
Ar        -0.32088    1.30323    0.16538
Ar        -0.17770    1.71539    0.32696
Ar        -0.73879    1.04281   -0.02710
Ar        -0.26051    1.25514    0.23374
Ar         1.10785    0.11858    0.23881
Ar         0.37843    1.17362   -0.12429
Ar         1.19509   -0.90835    0.20864
Ar         0.15348    1.99995   -0.49906
Ar         1.26100   -0.17809    0.49971
Ar         0.00484    0.27853   -0.24349
Ar         0.38385    0.20432   -0.19667
Ar         0.92868   -0.17232    0.97480
Ar         0.57995   -0.82272   -0.34063
Ar         0.96260   -0.23860    0.46721
Ar        -0.01072   -0.34988    1.60739
Ar         0.76068    1.58940    1.22750
Ar         1.35866    1.16629    1.23031
Ar         1.31582    0.53046    1.34679
Ar         1.42871    1.08439    0.78342
Ar        -0.55911    1.33960    1.57459
Ar        -0.11809   -0.99692    0.11339
Ar         1.16309   -0.30159    1.38913
Ar        -0.72487   -1.19830    1.62789
Ar         1.88756   -0.22759    1.34818
Ar         0.22254    1.56794    1.36506
Ar         0.57273    0.92657    1.93509
Ar         1.39686    1.38679   -0.55028
Ar        -0.35775    0.61986    1.49806
Ar         1.47344    0.57190    1.41077
Ar        -0.17624    1.37395    1.67514
Ar        -0.01677    1.18055    1.85569
Ar         0.83530   -0.39759    0.83410
Ar         0.15385   -0.20164    1.75473
Ar         1.08333   -0.20114    0.54749
Ar        -0.69277    1.12159   -0.33756
100

Ar         0.65735    0.72502   -0.90965
Ar         3.52011    1.85586    0.96951
Ar         2.93638    0.67844    2.11416
Ar         3.20052    0.66921    0.38522
Ar         4.06010    0.69109    0.66695
Ar         1.29711    0.81175    0.40094
Ar         1.60048    2.72648    1.63897
Ar         3.39397    1.46271    0.91596
Ar         4.03876    1.45382    2.24295
Ar         4.91603    2.16583    0.50307
Ar         2.07679    2.64701    0.99273
Ar         1.88534    3.23090    1.66190
Ar         2.83565    3.09521    1.10692
Ar         4.83870    2.40390    0.24722
Ar         4.80712    2.01362    1.35253
Ar         1.64275    3.20950   -0.03607
Ar         1.86047    4.60987    1.16065
Ar         4.01781    5.20431    2.00727
Ar         4.44525    3.80547    0.60976
Ar         4.17986    3.07447   -0.06852
Ar         1.16886    6.34076    1.30329
Ar         2.64475    4.99653    1.34344
Ar         1.62066    4.34609    0.32861
Ar         3.54431    5.82977    0.52578
Ar         5.72551    4.84967    1.29255
Ar         0.89729    0.93682    2.45282
Ar         1.69815    1.41142    2.77890
Ar         1.94205    1.20447    2.26945
Ar         3.25856    1.14295    1.03591
Ar         5.26876   -0.02695    1.51334
Ar        -0.02381    1.62584    1.23799
Ar         1.31664    2.20094    2.68852
Ar         4.31894    2.82204    2.03587
Ar         3.68856    1.87097    1.09282
Ar         4.94067    2.39287    1.29661
Ar         2.13913    2.18985    1.68288
Ar         1.84288    1.35855    2.51084
Ar         3.97667    3.32738    1.30247
Ar         3.19171    3.79363    1.78905
Ar         4.82163    2.47754    2.38134
Ar         1.37241    3.80493    1.83435
Ar         2.34092    4.85396    2.48157
Ar         2.83021    3.89416    1.57161
Ar         4.27274    3.94188    1.74221
Ar         5.01139    4.38417    3.15046
Ar         0.88315    4.47210    2.32356
Ar         2.33152    4.63126    3.28972
Ar         2.43475    4.94569    1.97953
Ar         4.51297    5.01934    1.49423
Ar         5.20729    5.14026    1.51659
Ar         1.52785    1.43248    3.74179
Ar         2.01837    2.03064    3.25284
Ar         2.97440    0.76316    2.49618
Ar         3.60051    1.13054    3.36864
Ar         5.36158    0.37793    2.67207
Ar         0.95670    1.97930    2.99881
Ar         1.96655    1.59362    1.96277
Ar         3.41795    2.13086    2.33292
Ar         5.21157    0.67599    3.14163
Ar         5.68868    1.45806    3.11283
Ar         0.14253    2.20117    2.10941
Ar         2.37033    4.25090    2.00292
Ar         2.70958    3.40960    2.84938
Ar         3.22835    3.19729    3.99157
Ar         5.90755    2.56720    2.18914
Ar         1.87731    3.36781    1.81340
Ar         3.36780    4.11680    2.39213
Ar         2.80743    3.55018    2.75344
Ar         3.81296    3.80546    3.63402
Ar         6.22568    4.82838    4.34128
Ar         1.47764    5.10245    3.24238
Ar         2.45116    4.77839    3.24855
Ar         2.28303    4.76849    2.03533
Ar         4.37759    4.83668    2.40868
Ar         5.29349    5.56961    4.46887
Ar         2.90415    0.35125    4.54624
Ar         1.84990    0.87595    3.84620
Ar         3.35619    1.18665    3.43329
Ar         4.13841    0.54463    4.27516
Ar         5.48957    0.95801    4.44403
Ar         1.62372    0.96049    3.75143
Ar         1.92489    2.66480    3.48689
Ar         2.91365    1.21112    2.62759
Ar         4.11104    1.87155    3.86310
Ar         4.27245    2.80069    3.88533
Ar         0.71082    4.03862    4.22597
Ar         2.01528    3.44925    3.34627
Ar         3.42329    3.28627    2.52273
Ar         4.51518    3.47118    3.96291
Ar         4.50990    2.86271    4.35120
Ar         0.71168    4.17467    4.24675
Ar         1.97184    4.53560    3.89703
Ar         3.04099    3.94416    4.53893
Ar         4.69308    4.30058    2.57673
Ar         5.53805    4.08455    4.00970
Ar         1.14184    4.03582    4.86761
Ar         1.87638    5.37215    2.47678
Ar         4.49893    4.41438    4.02123
Ar         3.73560    4.62416    3.99388
Ar         4.13332    4.36500    3.92808
100

Ar        -0.19419    0.47037    1.17571
Ar         1.26306   -0.75446    0.51085
Ar        -0.90412    0.97451    0.16838
Ar         0.69316   -0.47372    0.07352
Ar         0.59491   -0.33866    0.64372
Ar         1.51505    0.58985    0.41328
Ar         1.49111    0.86750   -0.14235
Ar        -0.11335    0.93211   -0.03003
Ar         0.62614    1.19507    0.19120
Ar         0.75699    0.36170   -0.66727
Ar         0.76843   -1.94244   -0.39482
Ar         1.24972   -0.43745   -0.96859
Ar        -0.96614    0.99321   -0.71055
Ar         0.85389    0.57252    0.51769
Ar        -0.18204   -0.30901   -0.08751
Ar        -0.08701    1.80710   -0.31835
Ar         1.94568    1.59849   -0.38370
Ar        -1.07671    1.38783    0.19283
Ar         0.49920    0.85237    0.17074
Ar         1.36212    1.05160   -0.19841
Ar        -0.09071    0.05370    0.24400
Ar         1.13723    0.07657   -0.74090
Ar        -0.38465    1.48190    0.15490
Ar         0.91181    1.14909   -0.48052
Ar        -0.64233    1.86736   -0.04785
Ar         1.37401   -0.44946    0.39227
Ar         0.97038    0.22399    1.91330
Ar        -0.90367    0.07379   -0.11832
Ar         0.87425    0.07287   -0.91779
Ar        -0.50338   -0.87408   -0.08048
Ar        -0.24868    1.70031    1.96293
Ar         1.11579    0.52355    0.18246
Ar         0.03819    1.51923    0.36089
Ar         0.23761    1.62052    1.28175
Ar         1.12868   -0.19482    0.92548
Ar        -0.61035   -0.50813   -0.52914
Ar         1.55112    0.37386    0.12230
Ar         0.15018   -0.38040    0.17682
Ar         0.45007   -0.34954    1.89647
Ar         0.67302    0.42412    0.36613
Ar         0.21542    1.38033    1.07530
Ar         1.31148   -0.21843    0.92375
Ar         1.17068   -0.04689    1.63282
Ar         1.31922    0.74495   -0.14047
Ar         0.38995    2.03325    1.68949
Ar         0.84447    0.86975    1.90619
Ar         1.19028   -0.30958    0.68062
Ar        -1.69165   -0.43145    0.09738
Ar         1.29023    0.36622    1.90597
Ar         0.27507    0.86866    0.26136
Ar         1.05316    0.28300   -0.34161
Ar         0.58975    0.71765    0.07362
Ar        -1.28315    0.06924    0.12148
Ar         1.47664   -0.29146   -0.28399
Ar         0.57708    0.58411    0.13671
Ar         0.62240    1.02046   -2.08461
Ar         0.98159    0.65293    0.23873
Ar        -0.08747    1.35811   -0.10161
Ar         0.55109    1.00894   -0.51687
Ar        -0.04232    1.19264    0.33325
Ar         1.28034    0.53920   -0.14208
Ar         0.53844    0.00499   -0.25859
Ar         0.82420   -0.51277   -0.35361
Ar         1.78686    0.91348    0.28456
Ar         1.84918    0.42684    0.01634
Ar         0.74439   -0.11338    0.25146
Ar         0.67513    1.40110   -0.94745
Ar         0.38482    1.08671    0.10557
Ar         0.88739    0.94079   -0.47360
Ar        -0.55372    1.66576    0.92518
Ar        -0.14529    1.78810   -0.30319
Ar         1.74318   -0.52257    0.07838
Ar        -0.73914   -0.42705   -0.25561
Ar         0.91407    1.79104   -0.46484
Ar        -0.24647   -0.84981    0.03580
Ar         0.39364   -0.04191    0.45890
Ar         1.93496    1.46644    1.60699
Ar        -0.03469    1.79123   -0.05635
Ar         1.53373    1.55927   -0.09015
Ar        -0.70678   -0.75024    1.54892
Ar        -0.19128    1.56214   -0.37675
Ar         0.68791    1.81252    0.70294
Ar         0.76283    1.61489    0.72471
Ar         0.41180    1.09650    1.86752
Ar         0.10603    1.55048    1.59088
Ar         0.44420    0.95749    0.02655
Ar         0.93143    0.63831   -0.55411
Ar         1.09051    0.25252    0.19914
Ar         0.49567   -0.39117    0.28130
Ar         1.44739    0.03511    2.04529
Ar        -0.36769    1.68493    1.90459
Ar         0.85624    1.20129    1.23396
Ar         1.10632    0.71179    1.72191
Ar         1.54851    1.54092    0.01901
Ar        -0.15433    1.94709    0.28726
Ar         0.98748   -0.35787    1.82070
Ar         0.91024   -0.20921    1.00030
Ar        -1.31544    1.27813    1.38722
Ar         0.82372    1.48582    1.32083
Ar        -0.10964   -0.78059    0.64581
100

Ar        -0.77903    0.95272   -0.96583
Ar         0.15910    0.53887    1.07632
Ar        -0.37701   -0.34418    0.44485
Ar         1.04996    1.17603   -0.01369
Ar         1.84317    0.71710   -0.00954
Ar         0.43992    0.56418    0.49603
Ar         0.17055    0.94410   -1.00551
Ar         0.65689    0.01065    0.52720
Ar         0.44548    1.35128    1.20844
Ar         0.48034    1.55285    0.46698
Ar         0.41388    0.69563    0.91975
Ar         0.36485   -0.20395    1.01701
Ar         0.38910   -1.09033    1.32909
Ar         0.23281    0.75919    1.07916
Ar         0.42135   -0.64409    1.25445
Ar        -0.45554    1.67271    0.32012
Ar        -0.56346    2.01157    0.08845
Ar        -0.95030    1.85945    0.62546
Ar        -0.01275    0.39218    0.75723
Ar         0.45012    1.22167   -0.15399
Ar         0.91047    1.95540    0.32711
Ar        -0.35759    0.34535   -0.17252
Ar         0.36524    1.81694    0.59232
Ar         0.40749    0.43910   -0.27118
Ar         0.37897    0.63036    1.09258
Ar         0.46692   -0.66813    0.92051
Ar         0.57552   -0.62861    1.65265
Ar         0.53182   -0.14695    0.66030
Ar        -0.18678   -0.18147    0.80414
Ar        -0.42407   -0.79355    0.41005
Ar        -0.31286    0.33740   -0.19899
Ar         0.85814    1.93763    1.15148
Ar         0.52059    1.68576    1.05325
Ar         1.01234    0.97829    0.09110
Ar         0.19113    1.05717    0.59571
Ar        -0.35743   -0.64084    0.44045
Ar         0.31142   -0.77864    1.23538
Ar        -0.69033   -0.12497    1.46730
Ar         0.92780   -0.44483    0.52881
Ar         0.13882    0.20441    1.01276
Ar         0.24458    1.22711    0.58890
Ar        -0.10011   -0.20185    0.82207
Ar        -0.22832   -0.10188    0.49915
Ar         0.41240    0.90630    0.60224
Ar         0.71484   -0.00369    1.74690
Ar         0.35356   -0.72834    1.48919
Ar         1.01298    1.97335    1.24085
Ar        -0.34678    1.89630    0.65135
Ar         0.50921    0.14755    0.59265
Ar         0.28928    1.18007    1.03989
Ar         0.96070   -0.07900    0.52153
Ar         1.09505    1.03593   -0.05878
Ar        -1.76755    1.00025   -1.00447
Ar         1.11937   -0.61950    0.26365
Ar        -0.26347    0.14755   -0.27142
Ar         0.27345    1.10301    1.52111
Ar         1.32984    2.02848   -0.43496
Ar        -0.22188    1.97269    0.95348
Ar         1.71768    1.61712   -0.14407
Ar         0.33575    1.38480   -0.69278
Ar         0.60094   -0.39626    0.47697
Ar         1.53356   -0.75468    0.12439
Ar         0.19073   -1.42800   -1.52165
Ar         1.05961   -0.09609    0.08254
Ar         0.24627   -0.52821    0.31915
Ar        -0.81867    1.32570    0.25502
Ar         1.58078    1.46705    0.09100
Ar         1.14278    1.88528   -1.23962
Ar        -0.59605    0.19624   -0.36268
Ar        -0.23706    1.08526    0.31794
Ar         0.49237    0.08288    0.19616
Ar         0.76611    1.33321    0.05556
Ar         0.50311    1.19284    0.17543
Ar         0.96031    0.53894    0.30988
Ar        -0.82759   -0.51138    0.27749
Ar         0.64815    0.12726    1.49779
Ar         1.40279   -0.01326    1.08915
Ar         0.71342    0.02583    0.83750
Ar         0.44252   -0.49056    1.28828
Ar         0.61939    0.40557    0.87335
Ar         0.12797    0.80261    0.89652
Ar         0.51123    1.02290    0.42616
Ar         0.30505    1.96803    1.26855
Ar         1.09970   -0.41046    0.64395
Ar         0.40290    0.08907    1.46311
Ar         0.53997   -0.30629    0.75513
Ar         0.44271   -0.07450    0.82427
Ar         0.50928   -0.63203    1.61845
Ar         0.19551    0.55818   -0.15278
Ar        -0.24969    0.18642    0.14005
Ar         0.09237    1.29540    1.00962
Ar         0.47697    1.26969    0.69335
Ar        -0.46370    0.61267    0.14878
Ar         0.22996    1.83013    1.67639
Ar         0.30383    0.72109    0.92694
Ar        -0.36147   -0.43972    1.74854
Ar         1.11918   -0.73143    0.15863
Ar         0.31803   -0.01533    1.51444
Ar         1.21825   -0.36497    0.65284
Ar         1.68171    1.98921    0.86914
