100

Ar         0.30814    0.80817    0.64153
Ar         1.33068    0.99918    0.67722
Ar         3.13076    0.42945    0.01588
Ar         3.70135    0.07819    0.69940
Ar         4.44781    0.30797    1.12520
Ar         0.98099    2.13099    0.31774
Ar         1.46839    1.71740    0.41814
Ar         2.57474    1.33783   -0.00230
Ar         3.04259    1.37861    0.58938
Ar         4.45597    1.55419    0.65423
Ar         0.69271    2.23442    0.33041
Ar         1.17519    2.70547    0.27928
Ar         2.26045    2.49410    0.07190
Ar         4.19243    2.85061    0.88132
Ar         3.94877    2.88257    0.19709
Ar         0.52629    3.41638    0.49041
Ar         1.61057    3.44952    1.23355
Ar         2.92023    3.53337    0.40438
Ar         3.98332    3.25120    0.54764
Ar         4.10223    3.76236    0.37392
Ar         0.05107    4.14146    0.56130
Ar         1.20352    4.78372    0.41128
Ar         2.37718    4.06778    0.89523
Ar         3.66814    4.62642    0.24876
Ar         4.44463    3.91182    0.59482
Ar         0.81079    0.32448    1.63339
Ar         1.40577    0.67975    1.71790
Ar         2.51436    0.83378    1.38712
Ar         3.67768    0.22121    1.67699
Ar         4.63348    0.72494    1.72077
Ar         0.52318    1.58592    1.34118
Ar         1.66081    1.35310    1.37689
Ar         2.59412    1.49597    1.00108
Ar         3.37462    1.70417    1.72027
Ar         4.73762    1.98106    1.26701
Ar         0.94776    2.27372    2.05524
Ar         0.96749    2.51862    1.19364
Ar         2.46008    2.37620    0.75864
Ar         3.50889    2.29349    1.41861
Ar        -0.08969    2.76784    1.23606
Ar         0.34180    2.85685    1.71039
Ar         1.34907    3.42448    1.37338
Ar         2.23049    3.20343    1.75192
Ar         3.84654    3.95605    1.49659
Ar         4.30536    3.33199    1.26045
Ar         1.05620    4.47530    1.10677
Ar         1.56710   -0.16039    1.41009
Ar         2.77645    4.44172    1.81737
Ar         3.34920    0.03387    2.22866
Ar         0.00311    4.55549    1.68707
Ar         0.92431    0.43845    2.41031
Ar         1.35108    0.73597    2.68872
Ar         2.67697    0.93732    3.17326
Ar         3.33616    0.91960    2.18249
Ar         4.60824    0.55168    2.02670
Ar         0.50163    1.87943    2.69452
Ar         1.65997    1.75211    2.37911
Ar         2.43875    1.28978    2.49343
Ar         3.55876    2.09608    2.07151
Ar         4.60845    0.86134    2.65501
Ar         0.56903    2.47718    2.79284
Ar         1.95257    2.70457    2.60109
Ar         2.48466    2.89694    2.51825
Ar         3.96789    2.15813    2.56047
Ar         4.60020    3.00767    2.31595
Ar         0.38058    3.78158    2.36388
Ar         1.27024    3.28230    2.26350
Ar         2.50358    2.90915    2.61527
Ar         3.41960    3.29258    2.49045
Ar         4.50438    3.52485    2.23467
Ar         0.79593    4.55962    2.67138
Ar         1.54071    0.02342    2.42109
Ar         2.61492    4.33138    2.68276
Ar         3.94102    4.12320    3.00356
Ar         4.75205    4.33723    2.33874
Ar         1.10714    0.38703    3.83411
Ar         1.52900    0.20385    3.56363
Ar         2.98823    0.35275    3.98076
Ar         3.19653    0.44945    3.64489
Ar         4.31673    0.21549    3.11886
Ar         0.08393    0.95684    3.52832
Ar         1.41733    1.48786    3.09316
Ar         1.94568    1.26917    4.06035
Ar         3.56718    1.49393    3.77116
Ar         4.65362    1.58526    3.62399
Ar         0.39274    2.18237    4.03393
Ar         1.23108    2.55216    3.36246
Ar         2.48578    2.58248    3.69117
Ar         4.08112    3.05902    3.72349
Ar         4.43660    2.66374    3.32330
Ar         0.64134    3.69070    3.84105
Ar         1.32449    2.78486    3.47122
Ar         2.10968    3.07284    3.67123
Ar         3.31559    3.11059    3.50876
Ar         4.62105    3.36498    3.00454
Ar         0.59514    3.88899    2.82451
Ar         1.45607   -0.06863    3.72887
Ar         2.86733    4.17161    3.46012
Ar         3.54695    4.56281    4.16869
Ar         0.06181    4.78871    3.71270
100

Ar         0.02108    0.21267    0.58567
Ar         1.09211    0.11656    0.02700
Ar        -0.17318    0.88656   -0.11232
Ar         1.21458    0.57041    0.10050
Ar         4.21544    0.21544    0.21544
Ar         0.41621    1.31924    0.10926
Ar         1.24929    0.56601    0.71976
Ar        -0.01446    1.12556    0.51080
Ar         1.07454    0.58745   -0.08901
Ar         0.64122    0.92653   -0.10789
Ar         0.20095   -0.97382    0.34071
Ar         1.12962    0.10920    0.14150
Ar        -0.52231   -0.44826   -0.25106
Ar         1.12374   -0.26665    0.39747
Ar         4.21544    2.21544    0.21544
Ar         0.50959    0.71340   -0.15625
Ar         1.44802    1.57255    0.55222
Ar        -0.27003    1.28442    0.31563
Ar         0.86385    1.07762    0.06491
Ar        -0.15110    1.15274    0.42290
Ar         0.21544    4.21544    0.21544
Ar         1.08689   -0.02930    0.38288
Ar         2.21544    4.21544    0.21544
Ar         1.10221   -0.01492    0.12720
Ar         4.21544    4.21544    0.21544
Ar         0.63797    0.10520    1.55155
Ar         0.86787    0.90033    1.31204
Ar         0.15547    0.18392    1.48082
Ar         1.13427    0.20564    0.97585
Ar        -0.03403   -0.03541    1.55132
Ar         0.59177    0.91318    1.33929
Ar         1.08600    1.66666    1.05048
Ar        -0.19321    1.09422    1.72507
Ar         1.36099    1.46023    1.11815
Ar         0.23834    1.37952    0.89543
Ar         0.55522   -0.09746    1.38690
Ar         1.04618   -0.32345    1.11236
Ar        -0.16093    0.10944    1.52860
Ar         1.11710   -0.44268    1.18244
Ar         1.71090    0.53507    1.17043
Ar         0.36770    0.51008    1.54029
Ar         1.40643    0.99566    1.36903
Ar         0.28719    1.05424    1.38980
Ar         0.55201    1.29934    1.56499
Ar         0.50910    0.96199    0.92983
Ar         0.14015    1.62916    1.42598
Ar         1.44555    0.07139    1.81371
Ar        -0.00521    1.87837    1.64717
Ar         0.68633   -0.10682    1.47369
Ar         0.39121    1.84964    1.50350
Ar         0.27147   -0.19001   -0.60655
Ar         1.34687    0.75884    0.14169
Ar         0.72265    0.98791    0.20232
Ar         1.28984    0.57799   -0.18757
Ar         4.21544    0.21544    2.21544
Ar         0.67397    1.12496    0.50092
Ar         1.08286    1.24376   -0.83435
Ar         0.21623    1.15771   -0.04571
Ar         1.19764    1.03115    0.09168
Ar         1.99901    1.12450    0.32574
Ar        -0.41510   -0.37849   -0.47643
Ar         1.31925    0.08237   -0.27382
Ar        -0.13343    0.05355   -0.58372
Ar         1.26922    0.46602   -0.30686
Ar         4.21544    2.21544    2.21544
Ar        -0.24951    1.41386    0.16194
Ar         1.82449    1.23046    0.16973
Ar        -0.10291    1.22675   -0.38266
Ar         0.68357    1.58911   -0.00920
Ar         1.58637    1.21124   -0.41461
Ar         0.21544    4.21544    2.21544
Ar         1.28982    0.17044    0.26038
Ar         2.21544    4.21544    2.21544
Ar         1.06445    1.84378   -0.10619
Ar         4.21544    4.21544    2.21544
Ar         0.14442   -0.02503    1.58892
Ar         1.07825    0.06856    0.93845
Ar         0.70364    0.15633    1.50918
Ar         0.86330   -0.54332    1.15691
Ar         0.12515    0.13418    1.61826
Ar         0.09694    1.19163    1.05616
Ar         1.40460    1.10335    1.09757
Ar         0.17688    1.60225    1.22226
Ar         1.50073    1.03590    1.07128
Ar        -0.04999    0.64277    1.62578
Ar         0.18581   -0.40269    1.44693
Ar         0.91460    0.23545    1.11451
Ar        -0.09442   -0.39545    1.37399
Ar         1.01634    0.05563    1.31170
Ar         1.60160    0.53708    1.43768
Ar         0.42812    1.24680    1.35519
Ar         1.12684    0.54517    0.84495
Ar        -0.48343    0.65102    1.19636
Ar         1.08730    0.72359    0.95539
Ar        -0.29603    0.84430    1.34876
Ar         0.52116    1.88720    1.21432
Ar         1.23021   -0.35096    1.19177
Ar         0.25444    0.00725    1.69414
Ar         1.25255    0.27263    0.97981
Ar        -0.23842    1.67562    1.72303
100

Ar         0.92202    0.97884    0.46110
Ar         2.09527    0.97352    0.82643
Ar         3.37539    1.05166    1.46550
Ar         3.51332    0.88053    0.86076
Ar         4.85370    1.35805    1.19966
Ar         1.38446    2.02110    0.57874
Ar         1.87513    1.65671    1.11941
Ar         2.84728    1.37667    0.97172
Ar         4.08070    2.19745    1.14075
Ar         4.75584    2.43478    1.43299
Ar         1.09260    2.77126    1.34042
Ar         1.95471    2.95507    1.41553
Ar         3.35770    3.11101    1.34508
Ar         4.16492    2.72949    1.02657
Ar         5.03559    2.84543    0.86554
Ar         1.01483    3.94917    1.25846
Ar         1.88846    4.13563    1.37703
Ar         3.24558    4.47814    1.29128
Ar         4.37217    3.61748    1.16099
Ar         4.79457    4.24407    0.50819
Ar         0.77004    5.43844    0.96538
Ar         1.58447    4.84889    1.55749
Ar         2.85266    4.81034    0.70598
Ar         3.98226    5.41355    1.16723
Ar         5.34290    4.94634    1.10905
Ar         1.35814    0.88816    2.32490
Ar         1.69857    1.14767    2.11385
Ar         2.65309    0.83292    1.84915
Ar         3.70271    0.37714    1.74795
Ar         4.76247    0.97122    2.24473
Ar         0.86216    1.90283    2.31478
Ar         1.91477    1.65122    1.74135
Ar         3.29021    2.17931    2.10603
Ar         3.85214    2.06520    2.05323
Ar         4.83360    2.03745    1.84268
Ar         1.32480    2.96808    2.16259
Ar         2.16550    2.97701    2.11292
Ar         3.44538    2.97192    1.98035
Ar         4.05401    3.05107    1.52157
Ar         5.03242    2.80198    2.22160
Ar         0.83760    4.10963    2.02604
Ar         2.13152    4.33976    1.65909
Ar         2.68392    3.61705    1.75659
Ar         4.28112    4.06199    1.99955
Ar         4.88137    4.28613    2.36474
Ar         1.21389    4.97931    1.87255
Ar         2.31457    4.67937    2.40366
Ar         2.71581    5.01932    2.61538
Ar         4.32041    4.76809    2.13067
Ar         4.85230    4.93680    1.81891
Ar         1.27217    0.93458    3.06796
Ar         1.93365    1.61531    3.32258
Ar         2.87082    0.82449    2.44364
Ar         3.76197    1.48773    2.97168
Ar         4.83791    0.78633    2.70859
Ar         0.41800    2.13234    3.48279
Ar         2.39570    2.18318    3.01310
Ar         3.02878    2.01754    3.13120
Ar         4.08953    1.29326    2.87912
Ar         5.10688    1.44583    3.11700
Ar         1.20235    3.32558    3.06005
Ar         1.78148    2.61801    2.70819
Ar         2.97883    3.10455    3.46967
Ar         3.75837    2.80756    3.14395
Ar         5.35753    2.70550    3.10880
Ar         1.39729    3.68498    3.06940
Ar         2.01058    3.90633    2.58823
Ar         2.65936    3.73594    2.83455
Ar         3.77378    3.51263    3.41052
Ar         5.46018    3.91561    3.76574
Ar         1.08646    5.47146    3.01160
Ar         1.86786    5.47190    3.01228
Ar         2.85831    4.88024    2.87896
Ar         4.25587    4.94739    3.00815
Ar         4.87229    4.81864    3.37639
Ar         1.63816    0.86665    3.60603
Ar         1.95166    0.76710    4.13988
Ar         3.02170    0.68270    4.19913
Ar         3.97726    1.08303    4.14858
Ar         5.41388    0.56578    4.09808
Ar         1.43933    1.70908    3.92303
Ar         1.98737    2.48518    3.79331
Ar         3.01244    2.12555    3.20372
Ar         4.50610    1.84685    4.12624
Ar         4.90138    2.31808    4.49394
Ar         0.57151    3.73025    4.25924
Ar         1.88449    2.97268    3.40384
Ar         2.85045    2.96536    3.25641
Ar         4.23289    3.08000    3.96916
Ar         4.74016    2.96922    4.32749
Ar         1.02873    4.09358    3.88702
Ar         2.71553    4.49236    3.80431
Ar         3.36029    4.26686    3.90973
Ar         4.53169    3.94188    4.07718
Ar         5.17309    4.16019    4.38332
Ar         1.10979    4.76131    4.65855
Ar         2.29602    4.90972    3.62487
Ar         3.00055    4.83129    4.07398
Ar         4.23158    5.06605    3.96449
Ar         5.02479    4.61929    3.76979
100

Ar         0.39027   -0.04819    0.37435
Ar         1.34020    0.17670    0.44011
Ar        -0.62522    0.51875    0.25891
Ar         1.37737    0.34701    0.42568
Ar         4.21544    0.21544    0.21544
Ar         0.50639    0.88080    0.64599
Ar         1.57308    1.55277    0.50542
Ar        -0.02560    0.80142    0.30880
Ar         0.84167    0.84589    0.16123
Ar         1.26918    0.76844    0.01738
Ar         0.69507   -1.04560   -0.63672
Ar         1.63519   -0.07090   -0.20418
Ar        -0.57680    0.11393   -0.12634
Ar         1.40632    0.15503    0.52910
Ar         4.21544    2.21544    0.21544
Ar        -0.17603    0.83609    0.39128
Ar         1.46576    1.27993    0.36958
Ar        -0.18247    1.15145    0.41934
Ar         0.97340    1.30073   -0.26531
Ar         1.76229    0.95689    0.03639
Ar         0.21544    4.21544    0.21544
Ar         1.30427    0.09132    0.50206
Ar         2.21544    4.21544    0.21544
Ar         1.58798   -0.06830   -0.47351
Ar         4.21544    4.21544    0.21544
Ar         0.72241   -0.14200    1.24724
Ar         1.11890    0.56739    1.39714
Ar        -0.12824    0.27275    1.28816
Ar         0.95920    0.22803    1.63549
Ar        -0.02008    0.00254    1.15789
Ar        -0.02069    1.22163    0.89591
Ar         1.31534    1.09541    1.33092
Ar        -0.22476    0.88987    0.67844
Ar         0.10782    1.03218    0.86330
Ar         1.94765    1.33063    1.02024
Ar        -0.08779   -0.06513    1.20647
Ar         1.65598    0.21471    1.01515
Ar         0.34109    0.11141    1.27406
Ar         1.07258    0.05739    1.10325
Ar         0.24676    0.50731    1.27476
Ar         0.06394    0.67721    1.04234
Ar         1.31343    0.94677    1.13971
Ar         0.29454    1.26833    1.44267
Ar         0.72681    0.56995    1.10814
Ar        -0.03014    1.33387    1.20321
Ar         0.84105    0.28660    1.61051
Ar         1.14558    0.27160    1.34273
Ar         0.00899    0.05887    1.20359
Ar         0.69647   -0.04942    1.26413
Ar         0.18410    0.34729    1.25251
Ar         0.63376    0.61533   -0.26739
Ar         1.58073    0.39288   -0.32150
Ar        -0.40885    0.48130    0.02433
Ar         1.41425    0.02301    0.03254
Ar         4.21544    0.21544    2.21544
Ar         0.84190    1.17721   -0.36884
Ar         1.22609    0.95553    0.37183
Ar        -0.27236    0.89385   -0.16738
Ar         0.97686    0.90553    0.15408
Ar         1.69675    1.16687    0.41243
Ar         0.17816    0.15628   -0.71803
Ar         1.13858    0.56318    0.08684
Ar        -0.37776   -0.19831   -0.52988
Ar         1.32427    0.29177   -0.11821
Ar         4.21544    2.21544    2.21544
Ar         0.76943    1.21279   -0.32385
Ar         1.37873    1.10742   -0.03537
Ar         0.30486    1.04333    0.06665
Ar         1.04264    0.66508    0.08994
Ar        -0.45140    1.17285    0.04689
Ar         0.21544    4.21544    2.21544
Ar         1.52872   -0.43596    0.22411
Ar         2.21544    4.21544    2.21544
Ar         1.24939    1.80017   -0.84439
Ar         4.21544    4.21544    2.21544
Ar         0.03964    0.29032    1.28385
Ar         1.44189    0.58406    0.79066
Ar         0.12428    0.48270    0.99737
Ar         0.57818    0.76252    0.92861
Ar         0.13715    0.34328    1.45418
Ar         0.20366    0.79116    1.18920
Ar         1.27824    1.51313    1.18034
Ar         0.61680    0.99633    0.55824
Ar         1.22974    0.88974    1.21327
Ar         1.96903    0.93775    0.78047
Ar         0.03695    0.45343    1.55759
Ar         1.04330   -0.01737    1.46259
Ar        -0.15104    0.49182    1.07707
Ar         1.10733    0.12568    1.22277
Ar         1.80568   -0.16718    1.09222
Ar        -0.29288    1.31693    1.20792
Ar         1.62944    1.33151    0.56916
Ar         0.56180    0.78517    0.87498
Ar         1.11099    0.95568    0.80739
Ar        -0.02091    0.58220    0.92178
Ar         0.50902   -0.22118    1.27780
Ar         1.18992   -0.00418    0.86605
Ar        -0.15051    2.04188    1.32687
Ar         1.22325    0.07845    1.62318
Ar        -0.09166    2.11486    1.31187
100

Ar        -0.13367    0.30291    0.11870
Ar         0.87324    0.49054    0.40022
Ar        -1.07826   -0.04053    0.26209
Ar         1.22419    0.70300    0.03015
Ar         4.21544    0.21544    0.21544
Ar         0.57888    1.13866    0.66563
Ar         1.47545    1.22876    0.19352
Ar         0.15646    1.36394   -0.20622
Ar         0.64587    0.94648    0.37315
Ar         0.49244    1.48439    0.05838
Ar         1.22152    0.56117    0.80391
Ar         1.07213    0.16350    0.42862
Ar         0.10594   -0.56178    0.78159
Ar         0.95245    0.24968    0.49471
Ar         4.21544    2.21544    0.21544
Ar         0.42826    1.02207    0.69543
Ar         1.27778    1.20545    0.73669
Ar         0.04340    1.34967    0.58777
Ar         1.26863    1.04821    0.48070
Ar         0.04528    1.26046    0.32774
Ar         0.21544    4.21544    0.21544
Ar         1.26818   -0.27828   -0.21995
Ar         2.21544    4.21544    0.21544
Ar         1.16663    0.30749    0.40852
Ar         4.21544    4.21544    0.21544
Ar         0.30754    0.20802    1.26680
Ar         1.16940    0.54380    1.36276
Ar        -0.13333    0.41356    1.12619
Ar         0.75117    0.62054    0.91703
Ar        -0.21130    0.06944    1.30743
Ar         0.06251    0.97275    1.44065
Ar         1.22422    1.25902    1.13438
Ar         0.29899    1.06280    1.28131
Ar         1.22005    0.94726    1.82820
Ar         0.24657    1.05004    1.46932
Ar        -0.18097   -0.26125    1.40132
Ar         0.96071    0.17564    0.87931
Ar        -0.32736   -0.00584    1.15110
Ar         0.81069    0.34283    1.26730
Ar        -0.02171   -0.46898    0.98752
Ar         0.20318    0.84259    0.96280
Ar         1.45297    0.51513    1.24138
Ar        -0.03422    1.77438    1.35896
Ar         0.96575    0.93063    0.95411
Ar         1.31727    0.73578    1.49901
Ar         0.36567    0.05292    1.23880
Ar         1.34895    2.00907    1.08466
Ar         0.06261    1.92925    1.10618
Ar         0.62085    0.08958    1.37391
Ar         0.05940    1.76450    1.41735
Ar         0.89991   -0.17276   -0.37002
Ar         0.81310    0.74134   -0.00787
Ar        -0.88528    0.30009   -0.42673
Ar         1.07511    0.39661    0.11660
Ar         4.21544    0.21544    2.21544
Ar         0.04076    1.49893   -0.06945
Ar         1.17802    1.10846   -0.10168
Ar         0.41628    1.28945    0.25966
Ar         0.99589    0.92285    0.04756
Ar         1.56256    1.38164   -0.32538
Ar         0.62935   -0.32566   -0.47353
Ar         0.92944   -0.21023    0.67229
Ar         0.45127   -0.85326   -0.66883
Ar         1.39397   -0.37977   -0.37819
Ar         4.21544    2.21544    2.21544
Ar        -0.38846    1.25731    0.09715
Ar         1.05652    1.24594    0.14915
Ar        -0.21421    1.42133    0.06517
Ar         1.24350    1.49139   -0.15081
Ar        -0.27771    1.41492    0.42825
Ar         0.21544    4.21544    2.21544
Ar         1.29117    1.84229   -0.03817
Ar         2.21544    4.21544    2.21544
Ar         0.96110    0.16138    0.04861
Ar         4.21544    4.21544    2.21544
Ar         0.37457    0.04825    1.40191
Ar         1.30213    0.13437    0.96904
Ar         0.53054    0.22218    1.19507
Ar         1.52206   -0.08848    0.89296
Ar         0.13771    0.34790    1.19616
Ar         0.47773    1.40379    0.57479
Ar         1.07726    0.79019    0.46448
Ar         0.16154    1.14704    0.71115
Ar         0.77338    1.53575    0.96452
Ar         1.49461    1.20332    1.30669
Ar         0.06270   -0.01060    1.18808
Ar         0.73332    0.15314    1.29856
Ar         0.33297    0.06015    1.04753
Ar         0.83119    0.04013    0.71163
Ar         0.01986    0.40183    1.15697
Ar        -0.25532    0.81958    1.31889
Ar         1.17951    1.33613    1.10979
Ar        -0.02158    1.00920    1.02529
Ar         1.18434    1.31326    1.02693
Ar         0.02193    1.05454    0.79330
Ar         0.31143    0.15143    1.35348
Ar         0.68367    0.20928    1.28933
Ar        -0.17643    1.82505    1.08541
Ar         0.61604    0.25024    1.40817
Ar         2.06352    1.87197    1.19353
