100

Ar         0.15457    0.43143    0.33237
Ar         2.12105    1.12435    0.61077
Ar         3.24803    0.13418    0.98364
Ar         3.27849    0.05800    0.40483
Ar         4.56125   -0.59296    1.62246
Ar         2.33651    1.99684    0.10273
Ar         1.25549    0.96591    1.83739
Ar         1.89688    1.65779   -0.50124
Ar         2.47944    1.65989    0.37477
Ar         4.15824   -0.30474    0.08089
Ar         0.23236    2.41607    0.33297
Ar         1.06535    3.17695    0.31653
Ar         2.78875    2.31125   -0.09505
Ar        -0.02744    1.82810    0.01099
Ar         3.08587    2.73745    0.45039
Ar         0.24989    3.35860    0.42114
Ar         3.17399    4.60615    2.66490
Ar         2.14082    3.89282    0.91990
Ar         4.84085    2.73567    0.99994
Ar         2.80160    0.06319    0.74134
Ar        -0.36471    4.34375    0.14349
Ar         1.28836    1.62018    0.63693
Ar         1.83352    4.10664   -0.07270
Ar         4.35164   -0.78704   -0.38251
Ar         3.03805    3.94191    0.30873
Ar         0.46170    0.39149    2.09280
Ar         1.56366   -0.02459    1.19291
Ar         3.29468   -0.22404    1.99375
Ar         2.98965    0.11508    1.58078
Ar         4.51017    0.64522    1.49681
Ar         1.01052    2.46983    1.95474
Ar         1.28349    0.73790    1.55885
Ar         2.83759    0.85832    1.50173
Ar         4.36802    1.19112    1.82439
Ar        -0.08365    1.44922    1.01751
Ar         1.25018    1.95095    0.61651
Ar         0.17086    2.63084    1.23556
Ar         2.41367    1.88277    0.32205
Ar         3.31898    2.66857    1.08283
Ar        -0.64011    3.24343    1.69675
Ar        -0.35988    3.55423    0.98298
Ar         0.69738    3.34470    0.46569
Ar         2.26047    3.16089    2.17580
Ar         3.92839    0.01402    1.66131
Ar        -1.19837    2.45395    2.19566
Ar         1.56002    3.88662    0.20210
Ar         1.24639    0.41748    0.92106
Ar         2.72840    3.69050    1.87538
Ar         2.18051   -1.26641    2.21668
Ar        -0.33386    3.75256    1.95663
Ar         2.58797   -0.92223    1.87175
Ar         1.41225    0.17163    1.55418
Ar         3.46324    0.12146    2.95128
Ar         4.32308    0.46294    2.01817
Ar        -0.73145    0.06514    3.12377
Ar         0.46381    1.59575    2.59805
Ar         1.14354    0.45501    2.18656
Ar         3.38510    2.16528    2.80176
Ar         2.38927    2.08964    1.91133
Ar         4.55140    0.88440    2.96717
Ar         1.49959    2.64890    2.72450
Ar         1.56322    3.56352    1.64251
Ar         1.67188    2.78250    3.09630
Ar         4.13957    1.06947    2.14253
Ar         3.50717    3.14735    1.34413
Ar         0.91686    4.65300    1.19284
Ar         2.24823    3.20672    2.42805
Ar         3.29159    2.40845    3.10218
Ar         2.46115    4.34046    2.26877
Ar         3.69188    3.87532    1.56355
Ar         0.47028    4.21123    1.18738
Ar         0.62759   -1.49323    2.01073
Ar         2.83723    3.91025    2.76388
Ar         3.81291    0.07806    1.72053
Ar        -0.25337    3.25401    2.90879
Ar        -0.25260    0.54417    4.18944
Ar         2.60880    0.89109    3.58140
Ar         3.56683   -0.21901    2.57140
Ar         2.78710    0.17108    3.05237
Ar         2.08773    1.01133    3.79131
Ar         0.39614    0.84896    2.92016
Ar         1.80316    1.10171    2.49067
Ar         1.71111    1.61789    4.40872
Ar         2.95169    1.02112    3.49088
Ar         0.62560    0.46000    1.96461
Ar        -0.15707    2.50206    3.99076
Ar         1.63586    3.59718    3.22564
Ar         1.90919    3.61428    3.68138
Ar         3.26861    2.60533    4.06829
Ar        -0.32598    2.29827    2.80687
Ar        -0.47293    3.80344    3.95242
Ar         1.81689    4.29096    4.18404
Ar         1.71455    3.97063    4.43985
Ar         3.66944    3.59052    2.95427
Ar        -0.53941    4.40485    2.83490
Ar        -0.16963    4.26400    2.25275
Ar         1.32537    0.72360    3.23819
Ar         2.10989    3.91143    4.59025
Ar         3.41682    4.26827    3.39109
Ar         0.19214   -0.59475    3.82258
100

Ar         0.03367    0.48570    0.62512
Ar         1.06716   -0.40914    0.24615
Ar        -1.27203    0.46411   -0.02238
Ar         1.35275    0.15443   -0.66047
Ar         1.21616    0.82114    0.66742
Ar        -0.25294    1.83203    0.28562
Ar         0.89334    0.08624   -0.58083
Ar        -0.29773    1.68311    0.24977
Ar         1.34757   -0.15736    0.26331
Ar         0.48604    1.54801   -0.40735
Ar         1.34044   -0.68230    0.61129
Ar         0.61520    0.74667   -0.32517
Ar        -0.58875    0.29078   -0.34852
Ar         1.36898   -0.42748    0.78860
Ar        -0.15121    0.03764   -0.19747
Ar         1.36599    0.47015   -0.52303
Ar         1.27336    1.24084    0.56518
Ar         0.30974   -0.38246   -0.23964
Ar         1.31164    1.00260    0.33781
Ar        -0.80888    2.09120    0.71194
Ar         0.93838    0.47558    0.48120
Ar         1.54788    0.87068   -0.79607
Ar         0.56462   -0.66369   -0.13013
Ar         1.59727   -0.77135   -0.71338
Ar         0.53184   -1.33786   -0.31138
Ar         1.07452   -1.18339    0.33799
Ar         1.01908    1.11425    0.90254
Ar        -0.26719   -0.89365   -0.11449
Ar         1.77512   -1.05263   -0.15708
Ar        -0.67984    2.04117    1.98132
Ar         0.01774    1.38251    0.67000
Ar         1.10917    1.22880    0.92659
Ar        -0.60221    1.61334   -0.82052
Ar         1.49579    1.56632    0.05409
Ar         0.28650    1.46544    0.31577
Ar         0.78368   -0.77203    0.98858
Ar        -0.18619   -0.66816    0.05186
Ar        -0.97807    0.48887   -0.08133
Ar         1.22019   -0.41333    1.04530
Ar         0.99839    1.21260    0.24978
Ar        -0.27483   -0.43455    1.46693
Ar         1.00807    0.43258   -0.96155
Ar         0.86235    1.61946    0.23168
Ar        -0.06275    0.13772   -0.21162
Ar        -0.87694    1.21575   -0.40766
Ar        -0.08053    1.45418    1.77390
Ar         0.72444   -0.03522    0.06107
Ar         0.37412    1.21374   -0.29498
Ar         1.92448    0.93249    1.65429
Ar         1.02528    1.10437    1.10951
Ar         0.72504    0.37096   -0.12070
Ar         1.19477    0.39876   -0.00465
Ar         1.51465    0.03832   -0.50093
Ar         1.18715    0.50987    0.32270
Ar        -0.08976    0.20118   -0.26508
Ar         0.28414    1.45565   -0.36098
Ar         1.30804    0.86122   -0.57594
Ar         0.19924    0.59162   -0.28935
Ar         1.10987   -0.12895    0.33015
Ar         1.16775    0.40861    0.46693
Ar        -0.76090    0.08452   -0.76997
Ar         1.14353   -0.70984   -1.26674
Ar        -0.31034   -0.38496    0.20970
Ar         0.46592    1.44221    0.59339
Ar        -0.29968    0.70634   -0.13265
Ar        -0.50457    1.51329    0.94421
Ar         0.62474    1.30555    0.17258
Ar        -0.74282    1.54178    0.16061
Ar        -0.55574    1.44299   -0.50159
Ar         1.72809    0.68225   -0.28454
Ar         0.50943    1.65980    0.21461
Ar         1.95633   -0.89359   -0.04500
Ar        -0.43102    1.76412   -0.39638
Ar         0.97275   -0.25821    0.82586
Ar        -1.02822   -0.04296    0.02760
Ar         0.57537    0.75791   -0.22991
Ar         1.25670   -0.93912    1.22156
Ar         0.15872   -1.10810   -0.33326
Ar         1.48610   -0.91174    1.16477
Ar         0.19228   -0.21906    1.67411
Ar         0.89979    1.93823    1.20510
Ar         1.97137    1.57176    1.34208
Ar         1.51428    0.54641    1.89111
Ar         1.15550    0.71531    1.00310
Ar        -0.92753    1.16192    1.52702
Ar        -0.42254   -1.26477   -0.15725
Ar         1.04901    0.11384    1.22009
Ar        -0.57239   -0.14309    1.71659
Ar         1.87841   -0.63999    1.26092
Ar         1.17527    0.98581    1.34503
Ar         0.87792    0.43561    0.10989
Ar         1.18721    1.94112   -1.53215
Ar        -0.67014    0.60896    1.85019
Ar         1.47834    0.11246    1.79946
Ar         0.05409    1.53946    1.65583
Ar         0.69402    1.58678    1.59667
Ar         0.94558   -0.16456    1.14165
Ar         0.30489   -0.32914    1.92611
Ar        -0.10442   -0.54317    0.83192
Ar        -0.74001    0.54220   -0.25591
100

Ar         0.40540    0.75517   -1.17615
Ar         3.23477    1.84362    1.44213
Ar         3.37391    1.12101    1.88312
Ar         3.38562    0.59171    0.68796
Ar         4.56867    0.23616   -0.20982
Ar         0.89325   -0.42801    0.54041
Ar         2.36933    3.48481    1.22785
Ar         3.18377    1.87395    1.05537
Ar         4.08631    1.83518    2.40280
Ar         5.00973    2.41347   -0.09282
Ar         2.17315    3.59669    1.00704
Ar         1.99611    3.09505    1.93821
Ar         2.49043    3.16052    1.06844
Ar         4.45965    2.02320    0.31859
Ar         4.89450    1.97302    1.35729
Ar         1.08063    3.76803   -0.32756
Ar         2.51967    5.07523    1.46618
Ar         4.20497    5.53205    2.51689
Ar         5.05996    2.98038    0.71764
Ar         4.08623    2.77019   -0.15582
Ar         0.83796    6.19919    1.72447
Ar         2.55546    5.00171    1.24394
Ar         1.43410    4.11966    0.80676
Ar         3.57584    5.56548    0.47071
Ar         6.50384    5.03643    0.76135
Ar         0.99569    1.03225    2.11386
Ar         1.81839    2.27733    2.27432
Ar         2.03416    1.06832    1.33113
Ar         3.40017    1.65166    0.46769
Ar         5.87849   -0.42436    1.39578
Ar         0.03749    1.90433    1.24282
Ar         0.96422    2.61682    2.75798
Ar         4.19779    3.25576    1.94796
Ar         3.98196    1.41321    1.32968
Ar         5.00157    2.01702    0.99787
Ar         1.98113    2.26492    1.57127
Ar         2.18501    2.16995    2.84897
Ar         4.46244    4.02713    1.80735
Ar         3.36742    4.07465    1.28569
Ar         4.04702    2.19605    1.90254
Ar         0.77749    3.55730    1.67705
Ar         1.62913    5.32762    3.26104
Ar         3.04875    4.53895    1.55081
Ar         4.75198    4.22047    2.06850
Ar         4.07900    5.16924    3.64138
Ar         1.01323    4.36636    1.86316
Ar         2.91343    3.73121    2.95445
Ar         2.74809    4.77080    2.50414
Ar         4.74542    5.34994    1.81682
Ar         5.16729    5.49489    1.45629
Ar         1.41564    1.23133    3.31646
Ar         2.14492    2.27133    3.57894
Ar         2.79802    0.71623    2.96980
Ar         3.38618    1.65729    3.37915
Ar         5.89185    0.73086    3.11000
Ar         0.63278    2.73878    3.27934
Ar         2.28884    1.30689    2.48391
Ar         3.18433    1.93565    2.02764
Ar         5.46403    0.07931    3.29955
Ar         6.13290    0.47832    3.70841
Ar         0.49170    2.28349    2.57859
Ar         2.65085    4.76352    1.99076
Ar         2.77030    2.91086    2.88672
Ar         2.64261    3.46386    3.39185
Ar         5.95650    2.94375    2.02718
Ar         2.04463    3.91709    1.93309
Ar         3.26323    4.21326    2.62299
Ar         2.58487    2.66815    2.25075
Ar         2.78370    3.99584    4.08541
Ar         5.37585    4.75982    3.94683
Ar         1.06842    5.26575    3.73288
Ar         2.14108    4.86880    2.93482
Ar         2.28504    4.72396    2.04255
Ar         4.85490    4.81900    1.92842
Ar         4.94864    5.72013    4.75535
Ar         3.18288    0.35476    4.59534
Ar         1.87937    0.82160    3.61298
Ar         3.92799    1.42540    4.00475
Ar         3.84894    0.37121    4.08677
Ar         5.26580    0.87667    3.98293
Ar         2.09475    0.95828    3.75430
Ar         1.83360    2.37145    3.27199
Ar         2.54516    0.31481    2.49629
Ar         3.61572    1.94331    4.40239
Ar         4.96970    2.99027    3.36359
Ar         1.30754    4.04723    4.29412
Ar         2.37665    3.52750    2.92156
Ar         3.19076    4.08285    2.70149
Ar         4.84005    3.78869    4.26788
Ar         4.72575    3.51768    4.07455
Ar         0.42009    4.15746    3.38337
Ar         1.83622    3.92553    4.12843
Ar         2.65312    3.72461    4.61761
Ar         5.08364    4.07956    3.22906
Ar         5.66456    3.64410    3.88671
Ar         0.23822    4.60303    4.16646
Ar         1.67892    5.46987    2.46972
Ar         4.12957    5.33974    3.32539
Ar         4.07717    4.42572    4.46029
Ar         4.05839    4.27067    3.72645
100

Ar         0.23325    0.57247    0.93206
Ar         1.67898   -0.86143    1.05835
Ar        -1.01351    0.45709    0.50640
Ar        -0.04236   -0.46963   -0.17741
Ar         0.37993   -0.32723    0.34693
Ar         1.71363    0.89889    0.17928
Ar        -0.13514    1.38194    0.19892
Ar        -0.47340    0.94190   -0.28669
Ar         1.25753    1.11464    0.47930
Ar         1.19380    0.28372   -0.29791
Ar         0.69466   -1.19148    0.19478
Ar         1.89698   -0.06385   -0.28877
Ar        -1.63106    1.48447   -0.76246
Ar         0.23607   -0.76079   -0.02255
Ar         0.15704   -0.33365    0.66844
Ar        -0.23659    1.90328   -0.74627
Ar         1.49397    1.66388    0.27232
Ar        -1.12630    1.56899   -0.00263
Ar         0.52438    1.02302   -0.13508
Ar         0.93630    1.16985    0.11905
Ar         0.01210    0.40374   -0.13845
Ar         1.74002   -0.06965   -0.10322
Ar        -0.29958    2.10465    0.31894
Ar         0.58984    1.20487   -0.26812
Ar        -1.13347    0.14126    0.36967
Ar         0.95016   -0.19719    0.99671
Ar         0.74937   -0.52939   -0.41997
Ar        -0.66856    0.11106    0.11020
Ar         1.17875   -0.42996   -0.81281
Ar        -0.87158   -1.23000    0.35820
Ar        -0.27587   -0.25676   -0.12933
Ar         1.16598    0.53891   -0.00461
Ar        -0.16263    1.88065    0.18861
Ar         0.21040    1.69962    1.09515
Ar         1.27307   -0.92986    1.06278
Ar        -0.79342    0.03517   -0.03269
Ar         1.78697   -0.33295   -0.04496
Ar        -0.51833   -0.95436    0.01462
Ar         0.94987   -0.12825   -0.61244
Ar         0.86857    0.50963    0.06797
Ar        -0.06025    1.66105    0.73811
Ar         1.44148   -0.73100    1.28993
Ar         1.66892   -0.27673    1.61872
Ar         1.05555    0.88215   -0.31681
Ar        -0.69104    2.01643    0.26640
Ar         0.80975    0.34733   -0.03504
Ar         0.75417   -0.56992    0.68097
Ar        -1.45057   -0.68716    0.12335
Ar         1.44610    0.78601   -0.15120
Ar         0.44703    1.79982    0.18295
Ar         1.02445    0.67396   -0.04366
Ar        -0.08792    0.76807    0.04066
Ar        -0.91858    0.45315    0.36222
Ar         1.29183    0.14903   -0.79022
Ar         0.64266    0.07266   -0.13223
Ar        -0.36639    0.85315    0.00006
Ar         1.55531    0.96469    0.37897
Ar        -0.38440    0.82508   -0.11193
Ar         0.48583    1.25472   -0.20346
Ar         0.20662    1.62465   -0.03785
Ar         1.45780    0.63219    0.15964
Ar         0.77651   -0.81961    0.28645
Ar         1.03812    0.19222   -0.43080
Ar         1.49801    1.21316    0.54737
Ar         0.23257    0.58276    0.04328
Ar         0.96030   -0.42322   -0.34071
Ar         0.78718    1.44566   -0.99100
Ar         0.76348    0.48933    0.15062
Ar         1.60596    1.91654   -1.13840
Ar         0.00231    1.62870    1.24681
Ar        -0.19616    0.01804    0.33659
Ar         1.37483   -0.09034    0.12405
Ar        -0.41706   -0.35320    0.13832
Ar         0.58858    1.51990   -0.77320
Ar        -0.58496   -1.04550    0.40891
Ar        -0.28205   -0.28857    0.62983
Ar         0.01418    1.65641    1.83832
Ar        -0.04652    1.33095   -0.55597
Ar         1.45274    0.89390    0.58697
Ar        -1.09801   -0.98922    0.86879
Ar        -0.16015    1.78537    0.04260
Ar         1.39209    0.15786    0.86693
Ar         0.83323    1.82488    1.04685
Ar         0.34350    1.37316   -0.21677
Ar         0.04895    1.89646    1.95705
Ar        -0.15225    0.88469    0.02322
Ar         1.57235    0.56765   -0.47352
Ar         1.15069    0.88335    0.21815
Ar         0.93320   -0.29252   -0.29552
Ar         1.89809   -0.14116    1.72426
Ar         0.07845    1.22494    2.04680
Ar         1.17162    1.45564    0.77041
Ar         1.43475    0.72204    0.35314
Ar         1.72684    1.89620    0.62273
Ar        -0.01203    2.12650    0.01167
Ar         1.15321   -1.34796    1.78761
Ar         1.34869   -0.46101    0.81592
Ar        -0.78394    1.21616    1.21469
Ar         1.12448    1.90343    1.18168
Ar        -0.01547   -0.77522    0.47220
100

Ar        -1.02028    1.50610   -1.38278
Ar         0.42686    0.34416    0.82204
Ar         0.35065    0.09263    0.98861
Ar         0.34649    0.61357   -0.13290
Ar         0.15384    1.58839   -0.30676
Ar        -0.01452    1.15952   -0.20303
Ar         0.17485    1.16686   -0.82196
Ar         0.53305    0.39420    0.72646
Ar         0.32489    1.93270    1.07838
Ar        -0.14270    1.46492    0.32883
Ar         0.38926    0.69942    0.85105
Ar        -0.02449   -0.23054    1.05695
Ar         0.51607   -0.50267    2.02795
Ar        -0.32251    0.83078    1.51201
Ar         0.07111   -0.86142    1.74051
Ar        -0.17181    1.33678    0.34160
Ar        -1.18014    0.32782    0.43480
Ar        -1.79362    0.46388    0.71344
Ar        -0.29269    0.56210   -0.06718
Ar         0.05725    1.63709   -0.24690
Ar         0.29635    0.09539    0.63247
Ar        -0.59158    0.32076   -0.51816
Ar         0.37836    0.21823    0.29250
Ar         0.01330    0.27953   -0.16707
Ar        -0.23482    0.86341    0.72700
Ar         0.33268   -0.71416    1.42210
Ar        -0.10652   -0.94414    1.64513
Ar         0.61892   -0.05877    1.44802
Ar         0.10959    0.17624    0.49418
Ar         0.01832   -0.39867    0.57689
Ar         0.20345    0.02497   -0.53701
Ar         0.20408    0.02205    0.86654
Ar         0.19487    0.03514    0.60218
Ar         0.61507    1.34977   -0.15054
Ar         0.05508    1.40071    0.93860
Ar        -0.09435   -1.46659    0.39446
Ar         0.14012   -0.92193    0.85464
Ar        -0.28971    0.11510    1.15742
Ar         0.65737   -0.13995   -0.35556
Ar         0.15875   -0.46911    1.69009
Ar        -0.19767    1.38444    0.23647
Ar        -0.45065    0.41698    0.83808
Ar         0.09374   -0.27469    0.65109
Ar         0.37197    0.80757    1.20363
Ar         0.54806    0.25672    1.64977
Ar        -0.01556   -1.22964    1.38809
Ar         0.18722   -0.64031    1.37331
Ar        -0.14553   -0.38730    0.45414
Ar         1.27289    0.27821   -0.02284
Ar         0.07284    1.61873    1.10211
Ar         1.22296    0.29856    0.59867
Ar         0.85212    0.28579   -0.12039
Ar        -1.49642    0.42786   -1.09808
Ar         0.78382   -0.33029   -0.22151
Ar         0.00659    0.81980    0.03582
Ar         0.38038    1.44159    0.10079
Ar         0.32261    1.69023    0.00047
Ar        -0.02642   -0.09438    0.85674
Ar         1.16964    1.55498   -0.33603
Ar        -0.16768    1.99999   -0.90317
Ar         0.13536   -0.88375    0.25394
Ar         1.32624    0.10804   -0.32474
Ar         0.31852   -1.44614   -1.70811
Ar         1.53647    0.42978    0.01968
Ar         0.10000   -0.76543    0.45410
Ar        -0.92588    0.87488   -0.58174
Ar        -0.05332    1.44545   -0.31939
Ar         1.45574    0.21720   -0.95069
Ar        -0.90320    0.33295   -0.46260
Ar        -0.06214    1.38166   -0.07515
Ar        -0.05918    0.02467    0.21799
Ar         0.51341    2.11236    0.01077
Ar         0.11504    1.40801    0.54881
Ar         0.53903   -0.05290   -0.01523
Ar        -1.74549   -0.21499   -0.07005
Ar         0.35612   -0.17869    1.53225
Ar         1.05111   -0.01698   -0.02324
Ar         0.07568    0.19518    1.12558
Ar         0.77955   -0.62435    1.97453
Ar         0.40158    0.16684    1.05992
Ar         0.12830    0.91041    1.30609
Ar         0.55026    0.67282    0.46431
Ar        -0.35882    0.01860    1.60086
Ar         1.55315    0.10922    0.38953
Ar         0.47742    0.19550    0.92025
Ar         0.15244   -0.07670    0.69686
Ar         0.09414    0.15272    1.88287
Ar         0.54880    0.10678    0.09574
Ar        -0.28403    0.92791    0.05260
Ar        -0.53437    0.29849    0.67174
Ar        -0.02119    0.93799    1.40548
Ar         0.31081   -0.00916    0.93552
Ar        -0.18803    0.43046   -0.04148
Ar         0.22239    1.28651    1.58438
Ar         0.12406    0.58838    0.63930
Ar        -0.17726   -0.49515    0.19228
Ar         0.94063   -0.17270   -0.30009
Ar         0.28612    0.17698    1.82156
Ar         1.46587   -0.12887   -0.29308
Ar         0.22842   -0.26645    0.56934
