100

Ar        -0.62921    3.70370   -1.95661
Ar         2.28781    0.58078   -0.50961
Ar         3.27061    2.21283    0.55372
Ar         1.03437    2.15847    0.75200
Ar         2.81087    1.58198    1.88256
Ar         2.65889    3.10098    2.12617
Ar         1.88228    1.08406    0.44061
Ar         1.33990   -0.87989    3.27875
Ar         4.93137    2.88808    1.62446
Ar         3.67715    2.08638    0.84937
Ar         1.11215    3.60645    0.39909
Ar         1.57202    2.98975   -0.79725
Ar         3.28454    0.81596    0.66702
Ar         2.78877    3.53991   -0.43089
Ar         0.20961    4.86335    2.36492
Ar        -1.39933    3.12923   -1.14550
Ar         1.47964    3.86375    0.45697
Ar         0.10698    2.44888    1.63293
Ar         4.29195    2.34228    1.07322
Ar         2.67724    3.73928   -0.30874
Ar        -0.42497    4.53565   -0.86219
Ar         1.30926    4.69987   -0.92744
Ar         3.61967    4.02656    1.79844
Ar         3.60664    0.03711    2.25960
Ar         4.43533   -1.55345    3.29086
Ar        -1.15631    0.61065    0.86307
Ar         0.86400    0.71635    1.12561
Ar         3.42321   -1.01168    1.07239
Ar         2.35098    0.43381    2.37199
Ar         0.21094   -0.35705    2.08947
Ar        -1.08102    1.49373    1.48372
Ar        -1.02816    2.07301    3.05753
Ar         2.01327   -0.42617    0.29692
Ar         4.57484    1.60147   -2.07578
Ar         6.05093   -0.20678    3.80311
Ar         0.33595    3.71580    1.11775
Ar         0.99583    2.20818    1.76018
Ar         2.27185    3.76445    2.76702
Ar         5.57405    3.96047   -0.26995
Ar        -0.54069    2.44301    0.99590
Ar        -0.65338    4.78040    1.66851
Ar         1.77794    2.00889    1.18323
Ar         4.76362    3.80115    0.65093
Ar         3.59544    3.36009    0.14924
Ar         5.44444    3.20797    0.94794
Ar        -0.51718    1.00622    1.58659
Ar         0.64986    4.95502    2.97848
Ar         4.10567    2.74005    0.80927
Ar         5.78018    4.83397    0.84031
Ar         0.77449    5.03415    1.45632
Ar         2.28157   -0.14497    3.06768
Ar         0.85504    2.31386    3.16215
Ar         3.27707    1.75951    0.82488
Ar         4.30463    2.13960    2.31571
Ar         5.39032   -0.44547    1.24454
Ar         2.76530    0.03518    2.27387
Ar        -0.17514    0.24127    1.89675
Ar         2.09173    3.16498    2.68359
Ar         1.90412   -0.01657    2.55778
Ar         2.29465    2.41601    4.62777
Ar         1.47049    3.56372    0.95564
Ar         4.39868    2.13966    3.25253
Ar         2.87614    2.56695    3.41954
Ar         3.54593    1.66750    4.44522
Ar        -1.52609    2.87437    3.32702
Ar         1.99707    4.80049    5.04379
Ar         1.75623    4.56109    2.89380
Ar         2.94136    4.02676    3.35400
Ar         5.50119    5.45530    2.86896
Ar         4.60397    3.02072    1.83316
Ar         0.02339    5.35198    1.77535
Ar         3.58894    5.24350    5.65629
Ar         2.47874    3.78081    1.15945
Ar         1.79029    5.43475    2.31412
Ar         3.98060    0.55717    1.65197
Ar         0.28303   -1.06401    3.68267
Ar         0.75515    0.48998    0.58833
Ar         4.41891    2.55496    1.73731
Ar         0.24862    1.23006    2.64034
Ar         3.30776    1.25322    4.86679
Ar        -0.98793    1.68178    4.90492
Ar         2.66550    0.93203    3.54717
Ar         2.37119    0.87937    1.29237
Ar         1.21853    3.56740    4.10263
Ar         0.78200    1.57916    4.73748
Ar         0.79872    2.27692    2.49414
Ar         0.77314    5.47206    2.04469
Ar         2.61594    1.35404    4.81134
Ar         0.43649    3.39252    3.95272
Ar         5.36646    1.59468    3.65367
Ar        -0.26963    4.81979    4.77213
Ar         0.96649    2.21544   -0.11365
Ar         4.22210    1.54370    4.46178
Ar         5.34356    3.25102    3.24706
Ar         3.72219    3.40232    5.66408
Ar         0.41231    4.33006    2.96864
Ar         2.57781    4.78081    0.45894
Ar         4.58658    1.55352   -0.19619
Ar         2.31422    4.75891    1.71097
Ar         2.96794    5.70743    4.27274
