100

Ar         1.57361    0.83916   -0.60312
Ar         2.56820   -0.79903    0.16464
Ar         0.08558    3.03267   -2.19723
Ar         1.74813    2.67876    1.77343
Ar         5.67142    3.59191    0.87085
Ar         2.89653   -0.58951    1.49174
Ar         0.40826    0.92152    1.87726
Ar         2.20615    0.68839    3.30183
Ar         2.43221    1.24757    0.20074
Ar         3.65225    0.85795    1.96623
Ar         2.08447    4.92413    1.72539
Ar        -0.51581    5.02801   -4.19943
Ar        -0.39440    0.76811    0.18045
Ar         1.94882    3.11653   -2.31839
Ar        -1.41926    0.63754    3.06434
Ar        -2.90086    2.39857    0.10608
Ar         1.54179    3.50263   -2.70127
Ar        -0.41494    4.02793    2.38286
Ar         2.30114    0.96229    1.43389
Ar         1.24667    3.22456   -0.42947
Ar        -1.76357    3.23130   -0.06983
Ar        -0.15376    0.94072   -1.54694
Ar        -0.94881    5.44540    2.90053
Ar         2.81852   -0.25848    1.18505
Ar         0.90027   -1.97555    1.94185
Ar        -1.41388   -0.55303    1.18205
Ar         1.84056    0.49583    1.66846
Ar        -0.19618    1.01564   -1.84954
Ar         3.56478    1.03579    0.75304
Ar         0.31044    0.10393    1.55290
Ar        -0.09689    2.14200    2.15501
Ar         1.62012    0.15751    2.56607
Ar         1.78788   -2.02855    1.29337
Ar         4.30595    2.86117   -0.22200
Ar        -1.86571   -1.53051    2.24533
Ar         0.06324    5.34228    2.73713
Ar         1.96437    3.15240    2.60424
Ar         1.90490    5.54776    0.43683
Ar        -1.83053    2.74972    1.89171
Ar        -2.10050   -0.04131    1.84017
Ar        -0.35580    5.60252    3.45529
Ar         0.95785    4.15550    0.98714
Ar         4.65541    1.75537   -1.00516
Ar         4.88554    4.87034    3.49139
Ar         4.70484    2.53661   -2.25165
Ar         1.79821   -1.35591    2.52896
Ar         0.82294    4.57266    5.17137
Ar         0.81248    1.74750    1.51590
Ar         1.27358    4.81465   -1.55545
Ar         2.71616    3.58662    1.17631
Ar         1.94999    0.41988    3.51998
Ar         1.46959    1.13955    2.18843
Ar         2.51213    0.47726   -1.58829
Ar         3.94326    1.70361    4.03276
Ar        -1.47462   -0.67611    4.50488
Ar         3.49438   -0.90748    1.88231
Ar         1.67921   -0.42260    2.46261
Ar         3.17887    3.25502    1.92797
Ar         0.90610    0.88233    1.41581
Ar         0.76241    5.70905    3.63817
Ar         4.17385    2.55166    0.31288
Ar         4.33232    1.04717    4.18135
Ar         3.02203    3.88818    3.95924
Ar         4.62138    2.10613    4.57262
Ar        -1.07901    2.68175    3.35158
Ar        -1.20283    0.05328    5.27613
Ar         2.79545    4.89380    4.65818
Ar         3.39218    3.81155   -0.57331
Ar         0.55931    4.29251    3.15059
Ar         0.08553    0.92691    2.16349
Ar         0.59605    0.53863    1.13955
Ar         1.11494    0.87087    3.03888
Ar         0.89235    1.47349    2.52320
Ar         1.61634    1.98366    2.40213
Ar        -0.78236   -0.03602    2.60970
Ar        -0.00018    2.31726    5.76516
Ar         0.56240   -1.86779    0.31274
Ar         4.97581    1.56858    2.73066
Ar        -0.57267    2.31462    3.58873
Ar         3.95285    2.53422    5.09056
Ar         2.34119    1.18410    4.27525
Ar         1.61894    0.71101    3.38003
Ar         2.38668    0.50481   -2.98807
Ar         2.79003    4.08305    4.76877
Ar         3.31457    0.29614    5.50816
Ar         0.89788    1.26461    1.49299
Ar         1.80945    3.66324    1.27337
Ar         5.50654   -0.89884    5.24539
Ar        -1.89738    5.08708    1.18160
Ar         0.91333   -0.78229    4.46826
Ar         2.93461    4.49789    5.36212
Ar         0.35394    2.67516   -1.52867
Ar         4.47504   -0.22979    3.94796
Ar        -0.87222    3.91270    5.40139
Ar         1.83244    3.11354    1.44004
Ar        -1.13862    3.85138    3.58914
Ar         2.01726    3.75487    0.04243
Ar         3.51451    2.07534   -2.36527
Ar         2.53129    2.53036   -0.02630
Ar         2.15726   -0.37124    4.09555
