100

Ar         3.32028    1.50396   -0.77077
Ar         3.45337   -0.09948   -0.13344
Ar         2.00288    2.72069   -1.32948
Ar         1.85987   -2.00864   -0.32811
Ar        -0.61156    2.09116    1.52804
Ar        -0.88926   -2.13520    2.45105
Ar         1.08446    1.67571    2.05658
Ar         1.30696    1.87712    1.50192
Ar         1.84538    1.59331    1.63709
Ar         4.43156    0.88067    0.47648
Ar         1.71562    3.98629    1.94827
Ar         3.67945    3.19666   -3.47633
Ar        -0.90745    0.46384    0.19423
Ar         2.43396    5.52310   -1.85907
Ar         0.12241    3.87713    1.37437
Ar        -3.53250    1.34832    0.78060
Ar         0.15262    5.04764   -2.08907
Ar         1.56563    4.07482    1.51321
Ar         1.74744    2.46019   -1.30390
Ar        -0.46137    2.04211   -0.64105
Ar        -2.70321    1.87659    0.17591
Ar         0.94584   -0.42705   -3.17743
Ar        -1.84309   -0.75379    4.79955
Ar         1.51943   -2.80293   -0.09373
Ar         1.53294   -1.80457    1.56741
Ar         0.13768   -1.56797    1.42647
Ar         0.14720   -0.44678    2.07187
Ar        -0.79660    0.79353   -3.05249
Ar         5.42054    2.77784   -0.13070
Ar         0.60583   -0.58148    2.90712
Ar         0.36984    0.45430    4.17343
Ar         5.26450    0.65265    0.81069
Ar         3.76048   -1.70988    2.27829
Ar         4.09432    3.31906    0.08333
Ar        -2.55160   -1.51262    2.50094
Ar        -0.47057   -0.14807    2.03420
Ar        -0.41029    3.46939    4.14955
Ar         1.76351    3.60607    0.72918
Ar        -2.78806   -0.00856    2.94511
Ar        -5.55247   -1.29047    0.72932
Ar        -2.16433    4.41026    4.18019
Ar        -0.26527    4.16816    0.14152
Ar         3.28016    2.65861   -2.68324
Ar         5.10859    3.25721    3.08181
Ar         3.19720    2.32081   -4.61028
Ar         0.29817   -0.04001    3.38134
Ar         0.31333    0.45260    4.33055
Ar        -0.47784    2.09906    1.40967
Ar         2.12281    4.48715    1.42868
Ar         1.49772    4.63768   -1.74517
Ar         4.02821    1.98131    3.75561
Ar         0.09925    0.12701    0.84559
Ar         5.52993    2.22199   -1.67835
Ar         2.53535    1.32566    3.09536
Ar        -1.77923   -1.85745    2.42933
Ar         3.80951   -1.58336    3.00128
Ar         2.06507    0.72786    4.24294
Ar         2.39505    4.71131    0.62115
Ar         0.90833    0.82447    0.65360
Ar        -0.46321    3.62968    5.03480
Ar         4.15239    1.06516   -1.32265
Ar         3.47209    0.67214    4.62025
Ar         5.24876    4.24936    3.84101
Ar         5.04274    2.11548    4.81405
Ar        -0.43833    0.77316    0.35946
Ar        -2.77008    1.02348    1.07991
Ar         1.91786   -0.03768    4.21722
Ar         2.01158    3.53414   -2.97149
Ar         2.35225    4.23932    2.32506
Ar        -1.17951   -0.91708    1.89987
Ar         0.39461    0.94352    2.85536
Ar        -0.45035   -0.78658    2.35937
Ar         1.18758    1.37172    1.57662
Ar        -0.00395    1.78523    3.61743
Ar        -1.75825   -0.15257    1.40743
Ar        -0.52831    1.53660   -0.20532
Ar         0.40383   -4.00329   -0.47288
Ar         0.74960    5.35715    2.70148
Ar        -0.85042    1.21526    3.58807
Ar         4.76862    3.44560    3.32683
Ar         1.86715    0.74528    3.88575
Ar         0.35724    0.99696    3.26204
Ar         1.88867    2.66688   -3.09455
Ar         3.36940    2.82483   -0.17352
Ar         3.08274   -0.88849    4.85070
Ar         1.44606    1.06011    1.57197
Ar         2.70649    4.68021    1.85883
Ar         4.10973    0.41995    5.97675
Ar         0.90125    5.61565    2.90147
Ar        -0.37227   -2.45706    3.56528
Ar         2.43577    5.39609   -1.35063
Ar        -0.56372    1.03405   -1.63888
Ar         4.30846   -0.24229    3.83302
Ar        -0.57678    2.58053    3.92837
Ar         4.51208    3.54691    0.91024
Ar        -2.68385    3.57193    4.55257
Ar         3.05622    4.68871   -1.33532
Ar         3.39369    2.17888   -3.41985
Ar         1.56439    4.23716    0.41093
Ar         2.55205    0.39919    4.41959
