100

Ar         0.62996    0.62996    0.62996
Ar         1.62996    0.62996    0.62996
Ar         2.62996    0.62996    0.62996
Ar         3.62996    0.62996    0.62996
Ar         4.62996    0.62996    0.62996
Ar         0.62996    1.62996    0.62996
Ar         1.62996    1.62996    0.62996
Ar         2.62996    1.62996    0.62996
Ar         3.62996    1.62996    0.62996
Ar         4.62996    1.62996    0.62996
Ar         0.62996    2.62996    0.62996
Ar         1.62996    2.62996    0.62996
Ar         2.62996    2.62996    0.62996
Ar         3.62996    2.62996    0.62996
Ar         4.62996    2.62996    0.62996
Ar         0.62996    3.62996    0.62996
Ar         1.62996    3.62996    0.62996
Ar         2.62996    3.62996    0.62996
Ar         3.62996    3.62996    0.62996
Ar         4.62996    3.62996    0.62996
Ar         0.62996    4.62996    0.62996
Ar         1.62996    4.62996    0.62996
Ar         2.62996    4.62996    0.62996
Ar         3.62996    4.62996    0.62996
Ar         4.62996    4.62996    0.62996
Ar         0.62996    0.62996    1.62996
Ar         1.62996    0.62996    1.62996
Ar         2.62996    0.62996    1.62996
Ar         3.62996    0.62996    1.62996
Ar         4.62996    0.62996    1.62996
Ar         0.62996    1.62996    1.62996
Ar         1.62996    1.62996    1.62996
Ar         2.62996    1.62996    1.62996
Ar         3.62996    1.62996    1.62996
Ar         4.62996    1.62996    1.62996
Ar         0.62996    2.62996    1.62996
Ar         1.62996    2.62996    1.62996
Ar         2.62996    2.62996    1.62996
Ar         3.62996    2.62996    1.62996
Ar         4.62996    2.62996    1.62996
Ar         0.62996    3.62996    1.62996
Ar         1.62996    3.62996    1.62996
Ar         2.62996    3.62996    1.62996
Ar         3.62996    3.62996    1.62996
Ar         4.62996    3.62996    1.62996
Ar         0.62996    4.62996    1.62996
Ar         1.62996    4.62996    1.62996
Ar         2.62996    4.62996    1.62996
Ar         3.62996    4.62996    1.62996
Ar         4.62996    4.62996    1.62996
Ar         0.62996    0.62996    2.62996
Ar         1.62996    0.62996    2.62996
Ar         2.62996    0.62996    2.62996
Ar         3.62996    0.62996    2.62996
Ar         4.62996    0.62996    2.62996
Ar         0.62996    1.62996    2.62996
Ar         1.62996    1.62996    2.62996
Ar         2.62996    1.62996    2.62996
Ar         3.62996    1.62996    2.62996
Ar         4.62996    1.62996    2.62996
Ar         0.62996    2.62996    2.62996
Ar         1.62996    2.62996    2.62996
Ar         2.62996    2.62996    2.62996
Ar         3.62996    2.62996    2.62996
Ar         4.62996    2.62996    2.62996
Ar         0.62996    3.62996    2.62996
Ar         1.62996    3.62996    2.62996
Ar         2.62996    3.62996    2.62996
Ar         3.62996    3.62996    2.62996
Ar         4.62996    3.62996    2.62996
Ar         0.62996    4.62996    2.62996
Ar         1.62996    4.62996    2.62996
Ar         2.62996    4.62996    2.62996
Ar         3.62996    4.62996    2.62996
Ar         4.62996    4.62996    2.62996
Ar         0.62996    0.62996    3.62996
Ar         1.62996    0.62996    3.62996
Ar         2.62996    0.62996    3.62996
Ar         3.62996    0.62996    3.62996
Ar         4.62996    0.62996    3.62996
Ar         0.62996    1.62996    3.62996
Ar         1.62996    1.62996    3.62996
Ar         2.62996    1.62996    3.62996
Ar         3.62996    1.62996    3.62996
Ar         4.62996    1.62996    3.62996
Ar         0.62996    2.62996    3.62996
Ar         1.62996    2.62996    3.62996
Ar         2.62996    2.62996    3.62996
Ar         3.62996    2.62996    3.62996
Ar         4.62996    2.62996    3.62996
Ar         0.62996    3.62996    3.62996
Ar         1.62996    3.62996    3.62996
Ar         2.62996    3.62996    3.62996
Ar         3.62996    3.62996    3.62996
Ar         4.62996    3.62996    3.62996
Ar         0.62996    4.62996    3.62996
Ar         1.62996    4.62996    3.62996
Ar         2.62996    4.62996    3.62996
Ar         3.62996    4.62996    3.62996
Ar         4.62996    4.62996    3.62996
